data_image0
_chemical_formula_structural       SrTiO3SrTiO3SrTiO3SrTiO3SrTiO3SrTiO3SrTiO3SrTiO3SrTiO3SrTiO3SrTiO3SrTiO3SrTiO3SrTiO3SrTiO3SrTiO3SrTiO3SrTiO3SrTiO3SrTiO3SrTiO3SrTiO3SrTiO3SrTiO3SrTiO3SrTiO3SrTiO3SrTiO3SrTiO3SrTiO3SrTiO3SrTiO3SrTiO3SrTiO3SrTiO3SrTiO3SrTiO3SrTiO3SrTiO3SrTiO3SrTiO3SrTiO3SrTiO3SrTiO3SrTiO3SrTiO3SrTiO3SrTiO3
_chemical_formula_sum              "Sr48 Ti48 O144"
_cell_length_a       11.045
_cell_length_b       11.715
_cell_length_c       26.7094
_cell_angle_alpha    90
_cell_angle_beta     90
_cell_angle_gamma    90

_space_group_name_H-M_alt    "P 1"
_space_group_IT_number       1

loop_
  _space_group_symop_operation_xyz
  'x, y, z'

loop_
  _atom_site_type_symbol
  _atom_site_label
  _atom_site_symmetry_multiplicity
  _atom_site_fract_x
  _atom_site_fract_y
  _atom_site_fract_z
  _atom_site_occupancy
  Sr  Sr1       1.0  0.00000  0.00000  0.11232  1.0000
  Ti  Ti1       1.0  0.25000  0.16667  0.11232  1.0000
  O   O1        1.0  0.25000  0.00000  0.11232  1.0000
  O   O2        1.0  0.12500  0.16667  0.16401  1.0000
  O   O3        1.0  0.37500  0.16667  0.16401  1.0000
  Sr  Sr2       1.0  0.25000  0.00000  0.21570  1.0000
  Ti  Ti2       1.0  0.00000  0.16667  0.21570  1.0000
  O   O4        1.0  0.00000  0.00000  0.21570  1.0000
  O   O5        1.0  0.37500  0.16667  0.26739  1.0000
  O   O6        1.0  0.12500  0.16667  0.26739  1.0000
  Sr  Sr3       1.0  0.00000  0.00000  0.31908  1.0000
  Ti  Ti3       1.0  0.25000  0.16667  0.31908  1.0000
  O   O7        1.0  0.25000  0.00000  0.31908  1.0000
  O   O8        1.0  0.12500  0.16667  0.37077  1.0000
  O   O9        1.0  0.37500  0.16667  0.37077  1.0000
  Sr  Sr4       1.0  0.25000  0.00000  0.42246  1.0000
  Ti  Ti4       1.0  0.00000  0.16667  0.42246  1.0000
  O   O10       1.0  0.00000  0.00000  0.42246  1.0000
  O   O11       1.0  0.37500  0.16667  0.47415  1.0000
  O   O12       1.0  0.12500  0.16667  0.47415  1.0000
  Sr  Sr5       1.0  0.00000  0.00000  0.52585  1.0000
  Ti  Ti5       1.0  0.25000  0.16667  0.52585  1.0000
  O   O13       1.0  0.25000  0.00000  0.52585  1.0000
  O   O14       1.0  0.12500  0.16667  0.57754  1.0000
  O   O15       1.0  0.37500  0.16667  0.57754  1.0000
  Sr  Sr6       1.0  0.25000  0.00000  0.62923  1.0000
  Ti  Ti6       1.0  0.00000  0.16667  0.62923  1.0000
  O   O16       1.0  0.00000  0.00000  0.62923  1.0000
  O   O17       1.0  0.37500  0.16667  0.68092  1.0000
  O   O18       1.0  0.12500  0.16667  0.68092  1.0000
  Sr  Sr7       1.0  0.00000  0.00000  0.73261  1.0000
  Ti  Ti7       1.0  0.25000  0.16667  0.73261  1.0000
  O   O19       1.0  0.25000  0.00000  0.73261  1.0000
  O   O20       1.0  0.12500  0.16667  0.78430  1.0000
  O   O21       1.0  0.37500  0.16667  0.78430  1.0000
  Sr  Sr8       1.0  0.25000  0.00000  0.83599  1.0000
  Ti  Ti8       1.0  0.00000  0.16667  0.83599  1.0000
  O   O22       1.0  0.00000  0.00000  0.83599  1.0000
  O   O23       1.0  0.37500  0.16667  0.88768  1.0000
  O   O24       1.0  0.12500  0.16667  0.88768  1.0000
  Sr  Sr9       1.0  0.00000  0.33333  0.11232  1.0000
  Ti  Ti9       1.0  0.25000  0.50000  0.11232  1.0000
  O   O25       1.0  0.25000  0.33333  0.11232  1.0000
  O   O26       1.0  0.12500  0.50000  0.16401  1.0000
  O   O27       1.0  0.37500  0.50000  0.16401  1.0000
  Sr  Sr10      1.0  0.25000  0.33333  0.21570  1.0000
  Ti  Ti10      1.0  0.00000  0.50000  0.21570  1.0000
  O   O28       1.0  0.00000  0.33333  0.21570  1.0000
  O   O29       1.0  0.37500  0.50000  0.26739  1.0000
  O   O30       1.0  0.12500  0.50000  0.26739  1.0000
  Sr  Sr11      1.0  0.00000  0.33333  0.31908  1.0000
  Ti  Ti11      1.0  0.25000  0.50000  0.31908  1.0000
  O   O31       1.0  0.25000  0.33333  0.31908  1.0000
  O   O32       1.0  0.12500  0.50000  0.37077  1.0000
  O   O33       1.0  0.37500  0.50000  0.37077  1.0000
  Sr  Sr12      1.0  0.25000  0.33333  0.42246  1.0000
  Ti  Ti12      1.0  0.00000  0.50000  0.42246  1.0000
  O   O34       1.0  0.00000  0.33333  0.42246  1.0000
  O   O35       1.0  0.37500  0.50000  0.47415  1.0000
  O   O36       1.0  0.12500  0.50000  0.47415  1.0000
  Sr  Sr13      1.0  0.00000  0.33333  0.52585  1.0000
  Ti  Ti13      1.0  0.25000  0.50000  0.52585  1.0000
  O   O37       1.0  0.25000  0.33333  0.52585  1.0000
  O   O38       1.0  0.12500  0.50000  0.57754  1.0000
  O   O39       1.0  0.37500  0.50000  0.57754  1.0000
  Sr  Sr14      1.0  0.25000  0.33333  0.62923  1.0000
  Ti  Ti14      1.0  0.00000  0.50000  0.62923  1.0000
  O   O40       1.0  0.00000  0.33333  0.62923  1.0000
  O   O41       1.0  0.37500  0.50000  0.68092  1.0000
  O   O42       1.0  0.12500  0.50000  0.68092  1.0000
  Sr  Sr15      1.0  0.00000  0.33333  0.73261  1.0000
  Ti  Ti15      1.0  0.25000  0.50000  0.73261  1.0000
  O   O43       1.0  0.25000  0.33333  0.73261  1.0000
  O   O44       1.0  0.12500  0.50000  0.78430  1.0000
  O   O45       1.0  0.37500  0.50000  0.78430  1.0000
  Sr  Sr16      1.0  0.25000  0.33333  0.83599  1.0000
  Ti  Ti16      1.0  0.00000  0.50000  0.83599  1.0000
  O   O46       1.0  0.00000  0.33333  0.83599  1.0000
  O   O47       1.0  0.37500  0.50000  0.88768  1.0000
  O   O48       1.0  0.12500  0.50000  0.88768  1.0000
  Sr  Sr17      1.0  0.00000  0.66667  0.11232  1.0000
  Ti  Ti17      1.0  0.25000  0.83333  0.11232  1.0000
  O   O49       1.0  0.25000  0.66667  0.11232  1.0000
  O   O50       1.0  0.12500  0.83333  0.16401  1.0000
  O   O51       1.0  0.37500  0.83333  0.16401  1.0000
  Sr  Sr18      1.0  0.25000  0.66667  0.21570  1.0000
  Ti  Ti18      1.0  0.00000  0.83333  0.21570  1.0000
  O   O52       1.0  0.00000  0.66667  0.21570  1.0000
  O   O53       1.0  0.37500  0.83333  0.26739  1.0000
  O   O54       1.0  0.12500  0.83333  0.26739  1.0000
  Sr  Sr19      1.0  0.00000  0.66667  0.31908  1.0000
  Ti  Ti19      1.0  0.25000  0.83333  0.31908  1.0000
  O   O55       1.0  0.25000  0.66667  0.31908  1.0000
  O   O56       1.0  0.12500  0.83333  0.37077  1.0000
  O   O57       1.0  0.37500  0.83333  0.37077  1.0000
  Sr  Sr20      1.0  0.25000  0.66667  0.42246  1.0000
  Ti  Ti20      1.0  0.00000  0.83333  0.42246  1.0000
  O   O58       1.0  0.00000  0.66667  0.42246  1.0000
  O   O59       1.0  0.37500  0.83333  0.47415  1.0000
  O   O60       1.0  0.12500  0.83333  0.47415  1.0000
  Sr  Sr21      1.0  0.00000  0.66667  0.52585  1.0000
  Ti  Ti21      1.0  0.25000  0.83333  0.52585  1.0000
  O   O61       1.0  0.25000  0.66667  0.52585  1.0000
  O   O62       1.0  0.12500  0.83333  0.57754  1.0000
  O   O63       1.0  0.37500  0.83333  0.57754  1.0000
  Sr  Sr22      1.0  0.25000  0.66667  0.62923  1.0000
  Ti  Ti22      1.0  0.00000  0.83333  0.62923  1.0000
  O   O64       1.0  0.00000  0.66667  0.62923  1.0000
  O   O65       1.0  0.37500  0.83333  0.68092  1.0000
  O   O66       1.0  0.12500  0.83333  0.68092  1.0000
  Sr  Sr23      1.0  0.00000  0.66667  0.73261  1.0000
  Ti  Ti23      1.0  0.25000  0.83333  0.73261  1.0000
  O   O67       1.0  0.25000  0.66667  0.73261  1.0000
  O   O68       1.0  0.12500  0.83333  0.78430  1.0000
  O   O69       1.0  0.37500  0.83333  0.78430  1.0000
  Sr  Sr24      1.0  0.25000  0.66667  0.83599  1.0000
  Ti  Ti24      1.0  0.00000  0.83333  0.83599  1.0000
  O   O70       1.0  0.00000  0.66667  0.83599  1.0000
  O   O71       1.0  0.37500  0.83333  0.88768  1.0000
  O   O72       1.0  0.12500  0.83333  0.88768  1.0000
  Sr  Sr25      1.0  0.50000  0.00000  0.11232  1.0000
  Ti  Ti25      1.0  0.75000  0.16667  0.11232  1.0000
  O   O73       1.0  0.75000  0.00000  0.11232  1.0000
  O   O74       1.0  0.62500  0.16667  0.16401  1.0000
  O   O75       1.0  0.87500  0.16667  0.16401  1.0000
  Sr  Sr26      1.0  0.75000  0.00000  0.21570  1.0000
  Ti  Ti26      1.0  0.50000  0.16667  0.21570  1.0000
  O   O76       1.0  0.50000  0.00000  0.21570  1.0000
  O   O77       1.0  0.87500  0.16667  0.26739  1.0000
  O   O78       1.0  0.62500  0.16667  0.26739  1.0000
  Sr  Sr27      1.0  0.50000  0.00000  0.31908  1.0000
  Ti  Ti27      1.0  0.75000  0.16667  0.31908  1.0000
  O   O79       1.0  0.75000  0.00000  0.31908  1.0000
  O   O80       1.0  0.62500  0.16667  0.37077  1.0000
  O   O81       1.0  0.87500  0.16667  0.37077  1.0000
  Sr  Sr28      1.0  0.75000  0.00000  0.42246  1.0000
  Ti  Ti28      1.0  0.50000  0.16667  0.42246  1.0000
  O   O82       1.0  0.50000  0.00000  0.42246  1.0000
  O   O83       1.0  0.87500  0.16667  0.47415  1.0000
  O   O84       1.0  0.62500  0.16667  0.47415  1.0000
  Sr  Sr29      1.0  0.50000  0.00000  0.52585  1.0000
  Ti  Ti29      1.0  0.75000  0.16667  0.52585  1.0000
  O   O85       1.0  0.75000  0.00000  0.52585  1.0000
  O   O86       1.0  0.62500  0.16667  0.57754  1.0000
  O   O87       1.0  0.87500  0.16667  0.57754  1.0000
  Sr  Sr30      1.0  0.75000  0.00000  0.62923  1.0000
  Ti  Ti30      1.0  0.50000  0.16667  0.62923  1.0000
  O   O88       1.0  0.50000  0.00000  0.62923  1.0000
  O   O89       1.0  0.87500  0.16667  0.68092  1.0000
  O   O90       1.0  0.62500  0.16667  0.68092  1.0000
  Sr  Sr31      1.0  0.50000  0.00000  0.73261  1.0000
  Ti  Ti31      1.0  0.75000  0.16667  0.73261  1.0000
  O   O91       1.0  0.75000  0.00000  0.73261  1.0000
  O   O92       1.0  0.62500  0.16667  0.78430  1.0000
  O   O93       1.0  0.87500  0.16667  0.78430  1.0000
  Sr  Sr32      1.0  0.75000  0.00000  0.83599  1.0000
  Ti  Ti32      1.0  0.50000  0.16667  0.83599  1.0000
  O   O94       1.0  0.50000  0.00000  0.83599  1.0000
  O   O95       1.0  0.87500  0.16667  0.88768  1.0000
  O   O96       1.0  0.62500  0.16667  0.88768  1.0000
  Sr  Sr33      1.0  0.50000  0.33333  0.11232  1.0000
  Ti  Ti33      1.0  0.75000  0.50000  0.11232  1.0000
  O   O97       1.0  0.75000  0.33333  0.11232  1.0000
  O   O98       1.0  0.62500  0.50000  0.16401  1.0000
  O   O99       1.0  0.87500  0.50000  0.16401  1.0000
  Sr  Sr34      1.0  0.75000  0.33333  0.21570  1.0000
  Ti  Ti34      1.0  0.50000  0.50000  0.21570  1.0000
  O   O100      1.0  0.50000  0.33333  0.21570  1.0000
  O   O101      1.0  0.87500  0.50000  0.26739  1.0000
  O   O102      1.0  0.62500  0.50000  0.26739  1.0000
  Sr  Sr35      1.0  0.50000  0.33333  0.31908  1.0000
  Ti  Ti35      1.0  0.75000  0.50000  0.31908  1.0000
  O   O103      1.0  0.75000  0.33333  0.31908  1.0000
  O   O104      1.0  0.62500  0.50000  0.37077  1.0000
  O   O105      1.0  0.87500  0.50000  0.37077  1.0000
  Sr  Sr36      1.0  0.75000  0.33333  0.42246  1.0000
  Ti  Ti36      1.0  0.50000  0.50000  0.42246  1.0000
  O   O106      1.0  0.50000  0.33333  0.42246  1.0000
  O   O107      1.0  0.87500  0.50000  0.47415  1.0000
  O   O108      1.0  0.62500  0.50000  0.47415  1.0000
  Sr  Sr37      1.0  0.50000  0.33333  0.52585  1.0000
  Ti  Ti37      1.0  0.75000  0.50000  0.52585  1.0000
  O   O109      1.0  0.75000  0.33333  0.52585  1.0000
  O   O110      1.0  0.62500  0.50000  0.57754  1.0000
  O   O111      1.0  0.87500  0.50000  0.57754  1.0000
  Sr  Sr38      1.0  0.75000  0.33333  0.62923  1.0000
  Ti  Ti38      1.0  0.50000  0.50000  0.62923  1.0000
  O   O112      1.0  0.50000  0.33333  0.62923  1.0000
  O   O113      1.0  0.87500  0.50000  0.68092  1.0000
  O   O114      1.0  0.62500  0.50000  0.68092  1.0000
  Sr  Sr39      1.0  0.50000  0.33333  0.73261  1.0000
  Ti  Ti39      1.0  0.75000  0.50000  0.73261  1.0000
  O   O115      1.0  0.75000  0.33333  0.73261  1.0000
  O   O116      1.0  0.62500  0.50000  0.78430  1.0000
  O   O117      1.0  0.87500  0.50000  0.78430  1.0000
  Sr  Sr40      1.0  0.75000  0.33333  0.83599  1.0000
  Ti  Ti40      1.0  0.50000  0.50000  0.83599  1.0000
  O   O118      1.0  0.50000  0.33333  0.83599  1.0000
  O   O119      1.0  0.87500  0.50000  0.88768  1.0000
  O   O120      1.0  0.62500  0.50000  0.88768  1.0000
  Sr  Sr41      1.0  0.50000  0.66667  0.11232  1.0000
  Ti  Ti41      1.0  0.75000  0.83333  0.11232  1.0000
  O   O121      1.0  0.75000  0.66667  0.11232  1.0000
  O   O122      1.0  0.62500  0.83333  0.16401  1.0000
  O   O123      1.0  0.87500  0.83333  0.16401  1.0000
  Sr  Sr42      1.0  0.75000  0.66667  0.21570  1.0000
  Ti  Ti42      1.0  0.50000  0.83333  0.21570  1.0000
  O   O124      1.0  0.50000  0.66667  0.21570  1.0000
  O   O125      1.0  0.87500  0.83333  0.26739  1.0000
  O   O126      1.0  0.62500  0.83333  0.26739  1.0000
  Sr  Sr43      1.0  0.50000  0.66667  0.31908  1.0000
  Ti  Ti43      1.0  0.75000  0.83333  0.31908  1.0000
  O   O127      1.0  0.75000  0.66667  0.31908  1.0000
  O   O128      1.0  0.62500  0.83333  0.37077  1.0000
  O   O129      1.0  0.87500  0.83333  0.37077  1.0000
  Sr  Sr44      1.0  0.75000  0.66667  0.42246  1.0000
  Ti  Ti44      1.0  0.50000  0.83333  0.42246  1.0000
  O   O130      1.0  0.50000  0.66667  0.42246  1.0000
  O   O131      1.0  0.87500  0.83333  0.47415  1.0000
  O   O132      1.0  0.62500  0.83333  0.47415  1.0000
  Sr  Sr45      1.0  0.50000  0.66667  0.52585  1.0000
  Ti  Ti45      1.0  0.75000  0.83333  0.52585  1.0000
  O   O133      1.0  0.75000  0.66667  0.52585  1.0000
  O   O134      1.0  0.62500  0.83333  0.57754  1.0000
  O   O135      1.0  0.87500  0.83333  0.57754  1.0000
  Sr  Sr46      1.0  0.75000  0.66667  0.62923  1.0000
  Ti  Ti46      1.0  0.50000  0.83333  0.62923  1.0000
  O   O136      1.0  0.50000  0.66667  0.62923  1.0000
  O   O137      1.0  0.87500  0.83333  0.68092  1.0000
  O   O138      1.0  0.62500  0.83333  0.68092  1.0000
  Sr  Sr47      1.0  0.50000  0.66667  0.73261  1.0000
  Ti  Ti47      1.0  0.75000  0.83333  0.73261  1.0000
  O   O139      1.0  0.75000  0.66667  0.73261  1.0000
  O   O140      1.0  0.62500  0.83333  0.78430  1.0000
  O   O141      1.0  0.87500  0.83333  0.78430  1.0000
  Sr  Sr48      1.0  0.75000  0.66667  0.83599  1.0000
  Ti  Ti48      1.0  0.50000  0.83333  0.83599  1.0000
  O   O142      1.0  0.50000  0.66667  0.83599  1.0000
  O   O143      1.0  0.87500  0.83333  0.88768  1.0000
  O   O144      1.0  0.62500  0.83333  0.88768  1.0000
